<?xml version="1.0" encoding="UTF-8"?>

<!-- generated on 2024-09-11 11:07:45 by Eclipse SUMO netedit Version 1.20.0
-->

<configuration xmlns:xsi="http://www.w3.org/2001/XMLSchema-instance" xsi:noNamespaceSchemaLocation="http://sumo.dlr.de/xsd/neteditConfiguration.xsd">

    <input>
        <sumocfg-file value="Gangnam6.rou.xml.rou.xml"/>
        <route-files value="Gangnam8.rou.xml"/>
        <sumo-net-file value="Gangnam4.net.xml"/>
    </input>

    <output>
        <human-readable-time value="1"/>
    </output>

    <processing>
        <geometry.min-radius.fix.railways value="false"/>
        <geometry.max-grade.fix value="false"/>
        <offset.disable-normalization value="true"/>
        <lefthand value="0"/>
    </processing>

    <junctions>
        <no-turnarounds value="true"/>
        <junctions.corner-detail value="5"/>
        <junctions.limit-turn-speed value="5.50"/>
        <rectangular-lane-cut value="0"/>
    </junctions>

    <pedestrian>
        <walkingareas value="0"/>
    </pedestrian>

</configuration>
