<?xml version="1.0" encoding="UTF-8"?>

<!-- generated on 2024-09-11 11:32:34 by Eclipse SUMO netedit Version 1.20.0
<configuration xmlns:xsi="http://www.w3.org/2001/XMLSchema-instance" xsi:noNamespaceSchemaLocation="http://sumo.dlr.de/xsd/neteditConfiguration.xsd">

    <input>
        <sumo-net-file value="/home/iotlab/Documents/SAINT_STAR/2023_Parcel_Delivery/Gangnam4.net.xml"/>
    </input>

    <output>
        <output-file value="/home/iotlab/Documents/SAINT_STAR/2023_Parcel_Delivery/Gangnam4.net.xml"/>
    </output>

    <processing>
        <geometry.min-radius.fix.railways value="false"/>
        <geometry.max-grade.fix value="false"/>
        <offset.disable-normalization value="true"/>
        <lefthand value="0"/>
    </processing>

    <junctions>
        <no-turnarounds value="true"/>
        <junctions.corner-detail value="5"/>
        <junctions.limit-turn-speed value="5.50"/>
        <rectangular-lane-cut value="0"/>
    </junctions>

    <pedestrian>
        <walkingareas value="0"/>
    </pedestrian>

</configuration>
-->

<net version="1.20" junctionCornerDetail="5" limitTurnSpeed="5.50" xmlns:xsi="http://www.w3.org/2001/XMLSchema-instance" xsi:noNamespaceSchemaLocation="http://sumo.dlr.de/xsd/net_file.xsd">

    <location netOffset="-325655.29,-4152222.24" convBoundary="6.92,8.04,2580.79,2613.78" origBoundary="127.027020,37.500635,127.057563,37.524386" projParameter="+proj=utm +zone=52 +ellps=WGS84 +datum=WGS84 +units=m +no_defs"/>
    
    <edge id=":10967997292_0" function="internal">
        <lane id=":10967997292_0_0" index="0" disallow="tram rail_urban rail rail_electric rail_fast ship" speed="27.78" length="0.30" shape="96.87,2133.65 96.83,2133.94"/>
        <lane id=":10967997292_0_1" index="1" disallow="tram rail_urban rail rail_electric rail_fast ship" speed="27.78" length="0.30" shape="93.69,2133.28 93.65,2133.58"/>
        <lane id=":10967997292_0_2" index="2" disallow="tram rail_urban rail rail_electric rail_fast ship" speed="27.78" length="0.30" shape="90.51,2132.92 90.47,2133.22"/>
    </edge>
    <edge id=":10967997293_0" function="internal">
        <lane id=":10967997293_0_0" index="0" disallow="tram rail_urban rail rail_electric rail_fast ship" speed="27.78" length="0.10" shape="83.35,2129.22 83.35,2129.22"/>
    </edge>
    <edge id=":10968031011_0" function="internal">
        <lane id=":10968031011_0_0" index="0" disallow="tram rail_urban rail rail_electric rail_fast ship" speed="27.78" length="0.30" shape="587.36,2320.91 587.44,2320.62"/>
        <lane id=":10968031011_0_1" index="1" disallow="tram rail_urban rail rail_electric rail_fast ship" speed="27.78" length="0.30" shape="590.43,2321.80 590.52,2321.51"/>
    </edge>
    <edge id=":10968031012_0" function="internal">
        <lane id=":10968031012_0_0" index="0" disallow="tram rail_urban rail rail_electric rail_fast ship" speed="27.78" length="0.30" shape="607.91,2327.19 607.82,2327.48"/>
        <lane id=":10968031012_0_1" index="1" disallow="tram rail_urban rail rail_electric rail_fast ship" speed="27.78" length="0.30" shape="604.86,2326.22 604.77,2326.51"/>
    </edge>
    <edge id=":11124971119_0" function="internal">
        <lane id=":11124971119_0_0" index="0" disallow="tram rail_urban rail rail_electric rail_fast ship" speed="27.78" length="0.10" shape="1293.35,1659.66 1293.35,1659.66"/>
    </edge>
    <edge id=":11124971119_1" function="internal">
        <lane id=":11124971119_1_0" index="0" disallow="tram rail_urban rail rail_electric rail_fast ship" speed="27.78" length="0.10" shape="1290.25,1658.84 1290.25,1658.84"/>
    </edge>
    <edge id=":11124971120_0" function="internal">
        <lane id=":11124971120_0_0" index="0" disallow="tram rail_urban rail rail_electric rail_fast ship" speed="13.89" length="0.10" shape="1373.74,1679.97 1373.74,1679.97"/>
    </edge>
    <edge id=":11124971120_1" function="internal">
        <lane id=":11124971120_1_0" index="0" disallow="tram rail_urban rail rail_electric rail_fast ship" speed="13.89" length="0.10" shape="1370.64,1679.19 1370.64,1679.19"/>
    </edge>
    <edge id=":11356020882_0" function="internal">
        <lane id=":11356020882_0_0" index="0" disallow="tram rail_urban rail rail_electric rail_fast ship" speed="16.67" length="0.30" shape="1095.22,2508.82 1094.92,2508.76"/>
    </edge>
    <edge id=":11356020883_0" function="internal">
        <lane id=":11356020883_0_0" index="0" disallow="tram rail_urban rail rail_electric rail_fast ship" speed="27.78" length="0.10" shape="1096.59,2494.59 1096.59,2494.59"/>
    </edge>
    <edge id=":11356020886_0" function="internal">
        <lane id=":11356020886_0_0" index="0" disallow="tram rail_urban rail rail_electric rail_fast ship" speed="27.78" length="0.30" shape="1048.12,2482.61 1048.40,2482.71"/>
    </edge>
    <edge id=":11356020887_0" function="internal">
        <lane id=":11356020887_0_0" index="0" disallow="tram rail_urban rail rail_electric rail_fast ship" speed="27.78" length="0.30" shape="1044.94,2494.60 1044.66,2494.50"/>
    </edge>
    <edge id=":11356020890_0" function="internal">
        <lane id=":11356020890_0_0" index="0" disallow="tram rail_urban rail rail_electric rail_fast ship" speed="27.78" length="0.30" shape="1074.30,2467.09 1074.27,2467.40"/>
    </edge>
    <edge id=":11356020890_1" function="internal">
        <lane id=":11356020890_1_0" index="0" disallow="tram rail_urban rail rail_electric rail_fast ship" speed="27.78" length="0.30" shape="1071.08,2467.14 1071.11,2466.85"/>
    </edge>
    <edge id=":11356020891_0" function="internal">
        <lane id=":11356020891_0_0" index="0" disallow="tram rail_urban rail rail_electric rail_fast ship" speed="27.78" length="0.10" shape="1091.15,2493.85 1091.15,2493.85"/>
    </edge>
    <edge id=":11356020892_0" function="internal">
        <lane id=":11356020892_0_0" index="0" disallow="tram rail_urban rail rail_electric rail_fast ship" speed="16.67" length="0.30" shape="1099.91,2509.62 1099.61,2509.56"/>
    </edge>
    <edge id=":11356020893_0" function="internal">
        <lane id=":11356020893_0_0" index="0" disallow="tram rail_urban rail rail_electric rail_fast ship" speed="27.78" length="0.30" shape="1070.54,2518.69 1070.53,2518.40"/>
    </edge>
    <edge id=":11356020893_1" function="internal">
        <lane id=":11356020893_1_0" index="0" disallow="tram rail_urban rail rail_electric rail_fast ship" speed="27.78" length="0.30" shape="1073.72,2518.26 1073.73,2518.57"/>
    </edge>
    <edge id=":11356020894_0" function="internal">
        <lane id=":11356020894_0_0" index="0" disallow="tram rail_urban rail rail_electric rail_fast ship" speed="27.78" length="0.30" shape="1049.57,2496.32 1049.29,2496.22"/>
    </edge>
    <edge id=":11356020895_0" function="internal">
        <lane id=":11356020895_0_0" index="0" disallow="tram rail_urban rail rail_electric rail_fast ship" speed="27.78" length="0.30" shape="1043.23,2480.78 1043.51,2480.88"/>
    </edge>
    <edge id=":11356020896_0" function="internal">
        <lane id=":11356020896_0_0" index="0" disallow="tram rail_urban rail rail_electric rail_fast ship" speed="27.78" length="0.30" shape="1075.17,2462.90 1075.10,2463.19"/>
    </edge>
    <edge id=":11356020896_1" function="internal">
        <lane id=":11356020896_1_0" index="0" disallow="tram rail_urban rail rail_electric rail_fast ship" speed="27.78" length="0.30" shape="1071.99,2462.46 1072.06,2462.17"/>
    </edge>
    <edge id=":11356103035_0" function="internal">
        <lane id=":11356103035_0_0" index="0" disallow="tram rail_urban rail rail_electric rail_fast ship" speed="27.78" length="0.30" shape="2018.31,1999.93 2018.01,1999.87"/>
    </edge>
    <edge id=":11356103036_0" function="internal">
        <lane id=":11356103036_0_0" index="0" disallow="tram rail_urban rail rail_electric rail_fast ship" speed="27.78" length="0.30" shape="2023.44,1982.43 2023.74,1982.49"/>
    </edge>
    <edge id=":11356103043_0" function="internal">
        <lane id=":11356103043_0_0" index="0" disallow="tram rail_urban rail rail_electric rail_fast ship" speed="27.78" length="0.30" shape="2045.79,1967.66 2045.89,1967.38"/>
    </edge>
    <edge id=":11356103044_0" function="internal">
        <lane id=":11356103044_0_0" index="0" disallow="tram rail_urban rail rail_electric rail_fast ship" speed="27.78" length="0.10" shape="2037.88,2014.00 2037.88,2014.00"/>
    </edge>
    <edge id=":11356103046_0" function="internal">
        <lane id=":11356103046_0_0" index="0" disallow="tram rail_urban rail rail_electric rail_fast ship" speed="27.78" length="0.10" shape="2047.47,1963.42 2047.47,1963.42"/>
    </edge>
    <edge id=":11356103047_0" function="internal">
        <lane id=":11356103047_0_0" index="0" disallow="tram rail_urban rail rail_electric rail_fast ship" speed="27.78" length="0.30" shape="2014.02,1998.99 2013.72,1998.93"/>
    </edge>
    <edge id=":11492300212_0" function="internal">
        <lane id=":11492300212_0_0" index="0" disallow="tram rail_urban rail rail_electric rail_fast ship" speed="13.89" length="2.51" shape="2367.84,765.07 2368.82,762.76"/>
    </edge>
    <edge id=":11492300212_1" function="internal">
        <lane id=":11492300212_1_0" index="0" disallow="tram rail_urban rail rail_electric rail_fast ship" speed="13.89" length="2.51" shape="2365.87,761.52 2364.89,763.83"/>
    </edge>
    <edge id=":11492300213_0" function="internal">
        <lane id=":11492300213_0_0" index="0" disallow="tram rail_urban rail rail_electric rail_fast ship" speed="22.22" length="3.80" shape="2301.82,730.79 2302.39,734.56"/>
    </edge>
    <edge id=":11492300213_1" function="internal">
        <lane id=":11492300213_1_0" index="0" disallow="tram rail_urban rail rail_electric rail_fast ship" speed="22.22" length="3.82" shape="2305.55,734.08 2304.98,730.30"/>
    </edge>
    <edge id=":11492300217_0" function="internal">
        <lane id=":11492300217_0_0" index="0" disallow="tram rail_urban rail rail_electric rail_fast ship" speed="22.22" length="0.30" shape="2179.66,668.25 2179.39,668.11"/>
    </edge>
    <edge id=":11492300217_1" function="internal">
        <lane id=":11492300217_1_0" index="0" disallow="tram rail_urban rail rail_electric rail_fast ship" speed="22.22" length="0.30" shape="2180.90,665.29 2181.17,665.43"/>
    </edge>
    <edge id=":11492300219_0" function="internal">
        <lane id=":11492300219_0_0" index="0" disallow="tram rail_urban rail rail_electric rail_fast ship" speed="22.22" length="0.27" shape="2200.99,665.62 2200.90,665.88"/>
    </edge>
    <edge id=":11492300219_1" function="internal">
        <lane id=":11492300219_1_0" index="0" disallow="tram rail_urban rail rail_electric rail_fast ship" speed="22.22" length="0.31" shape="2197.89,664.79 2197.99,664.50"/>
    </edge>
    <edge id=":11492300222_0" function="internal">
        <lane id=":11492300222_0_0" index="0" disallow="tram rail_urban rail rail_electric rail_fast ship" speed="22.22" length="1.11" shape="2010.42,652.31 2010.51,653.42"/>
    </edge>
    <edge id=":11492300222_1" function="internal">
        <lane id=":11492300222_1_0" index="0" disallow="tram rail_urban rail rail_electric rail_fast ship" speed="22.22" length="1.11" shape="2013.69,653.16 2013.61,652.05"/>
    </edge>
    <edge id=":1326157575_0" function="internal">
        <lane id=":1326157575_0_0" index="0" disallow="tram rail_urban rail rail_electric rail_fast ship" speed="6.34" length="9.04" shape="1154.43,1888.68 1151.98,1888.16 1150.01,1888.57 1148.52,1889.92 1147.50,1892.21"/>
    </edge>
    <edge id=":1326157575_1" function="internal">
        <lane id=":1326157575_1_0" index="0" disallow="tram rail_urban rail rail_electric rail_fast ship" speed="13.89" length="15.04" shape="1154.43,1888.68 1140.39,1883.30"/>
    </edge>
    <edge id=":1326157575_2" function="internal">
        <lane id=":1326157575_2_0" index="0" disallow="tram rail_urban rail rail_electric rail_fast ship" speed="8.40" length="14.79" shape="1154.43,1888.68 1150.92,1886.79 1148.76,1884.19 1147.95,1880.90 1148.50,1876.90"/>
    </edge>
    <edge id=":1326157575_3" function="internal">
        <lane id=":1326157575_3_0" index="0" disallow="tram rail_urban rail rail_electric rail_fast ship" speed="3.65" length="4.67" shape="1154.43,1888.68 1153.58,1887.52 1153.49,1886.63 1154.14,1886.02 1155.54,1885.68"/>
    </edge>
    <edge id=":1326157575_4" function="internal">
        <lane id=":1326157575_4_0" index="0" disallow="tram rail_urban rail rail_electric rail_fast ship" speed="6.98" length="9.92" shape="1151.58,1877.77 1151.21,1880.46 1151.75,1882.67 1153.19,1884.41 1155.54,1885.68"/>
    </edge>
    <edge id=":1326157575_5" function="internal">
        <lane id=":1326157575_5_0" index="0" disallow="tram rail_urban rail rail_electric rail_fast ship" speed="13.89" length="15.00" shape="1151.58,1877.77 1147.50,1892.21"/>
    </edge>
    <edge id=":1326157575_6" function="internal">
        <lane id=":1326157575_6_0" index="0" disallow="tram rail_urban rail rail_electric rail_fast ship" speed="7.83" length="4.16" shape="1151.58,1877.77 1149.93,1881.48 1149.85,1881.55"/>
    </edge>
    <edge id=":1326157575_7" function="internal">
        <lane id=":1326157575_7_0" index="0" disallow="tram rail_urban rail rail_electric rail_fast ship" speed="3.65" length="1.44" shape="1151.58,1877.77 1150.49,1878.71"/>
    </edge>
    <edge id=":1326157575_16" function="internal">
        <lane id=":1326157575_16_0" index="0" disallow="tram rail_urban rail rail_electric rail_fast ship" speed="7.83" length="10.43" shape="1149.85,1881.55 1147.52,1883.64 1144.33,1884.25 1140.39,1883.30"/>
    </edge>
    <edge id=":1326157575_17" function="internal">
        <lane id=":1326157575_17_0" index="0" disallow="tram rail_urban rail rail_electric rail_fast ship" speed="3.65" length="3.23" shape="1150.49,1878.71 1149.61,1878.88 1148.95,1878.28 1148.50,1876.90"/>
    </edge>
    <edge id=":1326157575_8" function="internal">
        <lane id=":1326157575_8_0" index="0" disallow="tram rail_urban rail rail_electric rail_fast ship" speed="6.30" length="9.04" shape="1141.57,1880.33 1144.01,1880.91 1145.98,1880.54 1147.48,1879.20 1148.50,1876.90"/>
    </edge>
    <edge id=":1326157575_9" function="internal">
        <lane id=":1326157575_9_0" index="0" disallow="tram rail_urban rail rail_electric rail_fast ship" speed="13.89" length="14.96" shape="1141.57,1880.33 1155.54,1885.68"/>
    </edge>
    <edge id=":1326157575_10" function="internal">
        <lane id=":1326157575_10_0" index="0" disallow="tram rail_urban rail rail_electric rail_fast ship" speed="8.48" length="14.83" shape="1141.57,1880.33 1145.07,1882.32 1147.23,1884.96 1148.04,1888.26 1147.50,1892.21"/>
    </edge>
    <edge id=":1326157575_11" function="internal">
        <lane id=":1326157575_11_0" index="0" disallow="tram rail_urban rail rail_electric rail_fast ship" speed="3.65" length="4.67" shape="1141.57,1880.33 1142.39,1881.52 1142.46,1882.41 1141.80,1883.00 1140.39,1883.30"/>
    </edge>
    <edge id=":1326157575_12" function="internal">
        <lane id=":1326157575_12_0" index="0" disallow="tram rail_urban rail rail_electric rail_fast ship" speed="7.08" length="10.04" shape="1144.42,1891.34 1144.78,1888.67 1144.23,1886.44 1142.76,1884.65 1140.39,1883.30"/>
    </edge>
    <edge id=":1326157575_13" function="internal">
        <lane id=":1326157575_13_0" index="0" disallow="tram rail_urban rail rail_electric rail_fast ship" speed="13.89" length="15.00" shape="1144.42,1891.34 1148.50,1876.90"/>
    </edge>
    <edge id=":1326157575_14" function="internal">
        <lane id=":1326157575_14_0" index="0" disallow="tram rail_urban rail rail_electric rail_fast ship" speed="7.87" length="4.13" shape="1144.42,1891.34 1146.05,1887.67 1146.14,1887.59"/>
    </edge>
    <edge id=":1326157575_15" function="internal">
        <lane id=":1326157575_15_0" index="0" disallow="tram rail_urban rail rail_electric rail_fast ship" speed="3.65" length="1.44" shape="1144.42,1891.34 1145.51,1890.40"/>
    </edge>
    <edge id=":1326157575_18" function="internal">
        <lane id=":1326157575_18_0" index="0" disallow="tram rail_urban rail rail_electric rail_fast ship" speed="7.87" length="10.36" shape="1146.14,1887.59 1148.45,1885.51 1151.61,1884.84 1155.54,1885.68"/>
    </edge>
    <edge id=":1326157575_19" function="internal">
        <lane id=":1326157575_19_0" index="0" disallow="tram rail_urban rail rail_electric rail_fast ship" speed="3.65" length="3.23" shape="1145.51,1890.40 1146.39,1890.24 1147.05,1890.84 1147.50,1892.21"/>
    </edge>
    <edge id=":1326157577_0" function="internal">
        <lane id=":1326157577_0_0" index="0" disallow="tram rail_urban rail rail_electric rail_fast ship" speed="13.89" length="14.87" shape="1002.59,769.23 999.02,768.19 995.37,767.60 991.66,767.33 987.92,767.29"/>
    </edge>
    <edge id=":1326157577_1" function="internal">
        <lane id=":1326157577_1_0" index="0" disallow="tram rail_urban rail rail_electric rail_fast ship" speed="7.74" length="3.80" shape="1002.59,769.23 999.22,767.48"/>
    </edge>
    <edge id=":1326157577_2" function="internal">
        <lane id=":1326157577_2_0" index="0" disallow="tram rail_urban rail rail_electric rail_fast ship" speed="3.68" length="1.61" shape="1002.59,769.23 1001.46,768.26 1001.42,768.15"/>
    </edge>
    <edge id=":1326157577_9" function="internal">
        <lane id=":1326157577_9_0" index="0" disallow="tram rail_urban rail rail_electric rail_fast ship" speed="7.74" length="12.30" shape="999.22,767.48 998.25,766.97 996.03,764.19 995.92,760.88 997.91,757.04"/>
    </edge>
    <edge id=":1326157577_10" function="internal">
        <lane id=":1326157577_10_0" index="0" disallow="tram rail_urban rail rail_electric rail_fast ship" speed="3.68" length="3.20" shape="1001.42,768.15 1001.15,767.40 1001.65,766.63 1002.98,765.96"/>
    </edge>
    <edge id=":1326157577_3" function="internal">
        <lane id=":1326157577_3_0" index="0" disallow="tram rail_urban rail rail_electric rail_fast ship" speed="6.01" length="9.18" shape="1000.48,758.95 999.30,761.18 999.33,763.09 1000.55,764.68 1002.98,765.96"/>
    </edge>
    <edge id=":1326157577_4" function="internal">
        <lane id=":1326157577_4_0" index="0" disallow="tram rail_urban rail rail_electric rail_fast ship" speed="11.58" length="15.59" shape="1000.48,758.95 997.38,762.58 994.25,765.18 991.10,766.75 987.92,767.29"/>
    </edge>
    <edge id=":1326157577_5" function="internal">
        <lane id=":1326157577_5_0" index="0" disallow="tram rail_urban rail rail_electric rail_fast ship" speed="3.65" length="4.67" shape="1000.48,758.95 999.12,759.43 998.24,759.27 997.84,758.48 997.91,757.04"/>
    </edge>
    <edge id=":1326157577_6" function="internal">
        <lane id=":1326157577_6_0" index="0" disallow="tram rail_urban rail rail_electric rail_fast ship" speed="10.46" length="12.65" shape="987.90,764.09 990.32,763.64 992.80,762.31 995.33,760.11 997.91,757.04"/>
    </edge>
    <edge id=":1326157577_7" function="internal">
        <lane id=":1326157577_7_0" index="0" disallow="tram rail_urban rail rail_electric rail_fast ship" speed="13.89" length="15.27" shape="987.90,764.09 991.70,764.12 995.55,764.36 999.34,764.93 1002.98,765.96"/>
    </edge>
    <edge id=":1326157577_8" function="internal">
        <lane id=":1326157577_8_0" index="0" disallow="tram rail_urban rail rail_electric rail_fast ship" speed="3.65" length="1.44" shape="987.90,764.09 989.10,764.88"/>
    </edge>
    <edge id=":1326157577_11" function="internal">
        <lane id=":1326157577_11_0" index="0" disallow="tram rail_urban rail rail_electric rail_fast ship" speed="3.65" length="3.23" shape="989.10,764.88 989.51,765.68 989.11,766.48 987.92,767.29"/>
    </edge>
    <edge id=":1326157578_0" function="internal">
        <lane id=":1326157578_0_0" index="0" disallow="tram rail_urban rail rail_electric rail_fast ship" speed="13.89" length="14.59" shape="207.83,2079.81 194.30,2074.36"/>
    </edge>
    <edge id=":1326157578_1" function="internal">
        <lane id=":1326157578_1_0" index="0" disallow="tram rail_urban rail rail_electric rail_fast ship" speed="7.66" length="4.28" shape="207.83,2079.81 204.12,2077.67"/>
    </edge>
    <edge id=":1326157578_2" function="internal">
        <lane id=":1326157578_2_0" index="0" disallow="tram rail_urban rail rail_electric rail_fast ship" speed="3.65" length="1.44" shape="207.83,2079.81 207.01,2078.62"/>
    </edge>
    <edge id=":1326157578_9" function="internal">
        <lane id=":1326157578_9_0" index="0" disallow="tram rail_urban rail rail_electric rail_fast ship" speed="7.66" length="10.83" shape="204.12,2077.67 202.28,2074.96 202.31,2071.69 204.21,2067.85"/>
    </edge>
    <edge id=":1326157578_10" function="internal">
        <lane id=":1326157578_10_0" index="0" disallow="tram rail_urban rail rail_electric rail_fast ship" speed="3.65" length="3.23" shape="207.01,2078.62 206.94,2077.73 207.60,2077.14 209.02,2076.84"/>
    </edge>
    <edge id=":1326157578_3" function="internal">
        <lane id=":1326157578_3_0" index="0" disallow="tram rail_urban rail rail_electric rail_fast ship" speed="6.08" length="9.06" shape="206.85,2069.67 205.71,2071.97 205.69,2073.93 206.79,2075.55 209.02,2076.84"/>
    </edge>
    <edge id=":1326157578_4" function="internal">
        <lane id=":1326157578_4_0" index="0" disallow="tram rail_urban rail rail_electric rail_fast ship" speed="8.84" length="14.63" shape="206.85,2069.67 204.09,2072.83 201.08,2074.66 197.81,2075.17 194.30,2074.36"/>
    </edge>
    <edge id=":1326157578_5" function="internal">
        <lane id=":1326157578_5_0" index="0" disallow="tram rail_urban rail rail_electric rail_fast ship" speed="3.65" length="4.67" shape="206.85,2069.67 205.51,2070.20 204.62,2070.08 204.19,2069.29 204.21,2067.85"/>
    </edge>
    <edge id=":1326157578_6" function="internal">
        <lane id=":1326157578_6_0" index="0" disallow="tram rail_urban rail rail_electric rail_fast ship" speed="7.49" length="10.26" shape="195.51,2071.39 197.89,2071.92 200.13,2071.50 202.24,2070.15 204.21,2067.85"/>
    </edge>
    <edge id=":1326157578_7" function="internal">
        <lane id=":1326157578_7_0" index="0" disallow="tram rail_urban rail rail_electric rail_fast ship" speed="13.89" length="14.57" shape="195.51,2071.39 209.02,2076.84"/>
    </edge>
    <edge id=":1326157578_8" function="internal">
        <lane id=":1326157578_8_0" index="0" disallow="tram rail_urban rail rail_electric rail_fast ship" speed="3.65" length="1.44" shape="195.51,2071.39 196.32,2072.59"/>
    </edge>
    <edge id=":1326157578_11" function="internal">
        <lane id=":1326157578_11_0" index="0" disallow="tram rail_urban rail rail_electric rail_fast ship" speed="3.65" length="3.23" shape="196.32,2072.59 196.38,2073.48 195.71,2074.07 194.30,2074.36"/>
    </edge>
    <edge id=":1326157587_0" function="internal">
        <lane id=":1326157587_0_0" index="0" disallow="tram rail_urban rail rail_electric rail_fast ship" speed="6.44" length="9.03" shape="280.80,1572.82 278.37,1572.29 276.37,1572.67 274.81,1573.97 273.69,1576.19"/>
    </edge>
    <edge id=":1326157587_1" function="internal">
        <lane id=":1326157587_1_0" index="0" disallow="tram rail_urban rail rail_electric rail_fast ship" speed="8.08" length="14.25" shape="280.80,1572.82 277.34,1570.94 275.29,1568.43 274.62,1565.29 275.36,1561.50"/>
    </edge>
    <edge id=":1326157587_2" function="internal">
        <lane id=":1326157587_2_0" index="0" disallow="tram rail_urban rail rail_electric rail_fast ship" speed="3.65" length="4.67" shape="280.80,1572.82 279.95,1571.65 279.86,1570.76 280.51,1570.15 281.92,1569.82"/>
    </edge>
    <edge id=":1326157587_3" function="internal">
        <lane id=":1326157587_3_0" index="0" disallow="tram rail_urban rail rail_electric rail_fast ship" speed="6.60" length="9.17" shape="278.38,1562.56 277.91,1564.98 278.35,1567.00 279.68,1568.61 281.92,1569.82"/>
    </edge>
    <edge id=":1326157587_4" function="internal">
        <lane id=":1326157587_4_0" index="0" disallow="tram rail_urban rail rail_electric rail_fast ship" speed="27.78" length="14.42" shape="278.38,1562.56 273.69,1576.19"/>
    </edge>
    <edge id=":1326157587_5" function="internal">
        <lane id=":1326157587_5_0" index="0" disallow="tram rail_urban rail rail_electric rail_fast ship" speed="3.65" length="1.44" shape="278.38,1562.56 277.23,1563.43"/>
    </edge>
    <edge id=":1326157587_9" function="internal">
        <lane id=":1326157587_9_0" index="0" disallow="tram rail_urban rail rail_electric rail_fast ship" speed="3.65" length="3.23" shape="277.23,1563.43 276.34,1563.54 275.72,1562.90 275.36,1561.50"/>
    </edge>
    <edge id=":1326157587_6" function="internal">
        <lane id=":1326157587_6_0" index="0" disallow="tram rail_urban rail rail_electric rail_fast ship" speed="27.78" length="14.44" shape="270.66,1575.16 275.36,1561.50"/>
    </edge>
    <edge id=":1326157587_7" function="internal">
        <lane id=":1326157587_7_0" index="0" disallow="tram rail_urban rail rail_electric rail_fast ship" speed="7.95" length="4.12" shape="270.66,1575.16 272.44,1571.65 272.58,1571.53"/>
    </edge>
    <edge id=":1326157587_8" function="internal">
        <lane id=":1326157587_8_0" index="0" disallow="tram rail_urban rail rail_electric rail_fast ship" speed="3.65" length="1.44" shape="270.66,1575.16 271.80,1574.28"/>
    </edge>
    <edge id=":1326157587_10" function="internal">
        <lane id=":1326157587_10_0" index="0" disallow="tram rail_urban rail rail_electric rail_fast ship" speed="7.95" length="10.19" shape="272.58,1571.53 274.91,1569.59 278.07,1568.98 281.92,1569.82"/>
    </edge>
    <edge id=":1326157587_11" function="internal">
        <lane id=":1326157587_11_0" index="0" disallow="tram rail_urban rail rail_electric rail_fast ship" speed="3.65" length="3.23" shape="271.80,1574.28 272.69,1574.16 273.31,1574.79 273.69,1576.19"/>
    </edge>
    <edge id=":1326157599_0" function="internal">
        <lane id=":1326157599_0_0" index="0" disallow="tram rail_urban rail rail_electric rail_fast ship" speed="6.43" length="9.03" shape="1187.98,2067.22 1185.52,2066.85 1183.56,2067.37 1182.09,2068.78 1181.13,2071.07"/>
    </edge>
    <edge id=":1326157599_1" function="internal">
        <lane id=":1326157599_1_0" index="0" disallow="tram rail_urban rail rail_electric rail_fast ship" speed="13.89" length="14.46" shape="1187.98,2067.22 1174.04,2063.35"/>
    </edge>
    <edge id=":1326157599_2" function="internal">
        <lane id=":1326157599_2_0" index="0" disallow="tram rail_urban rail rail_electric rail_fast ship" speed="8.06" length="14.27" shape="1187.98,2067.22 1184.40,2065.58 1182.19,2063.21 1181.34,2060.10 1181.86,2056.26"/>
    </edge>
    <edge id=":1326157599_3" function="internal">
        <lane id=":1326157599_3_0" index="0" disallow="tram rail_urban rail rail_electric rail_fast ship" speed="3.65" length="4.67" shape="1187.98,2067.22 1187.06,2066.11 1186.91,2065.23 1187.52,2064.58 1188.90,2064.16"/>
    </edge>
    <edge id=":1326157599_4" function="internal">
        <lane id=":1326157599_4_0" index="0" disallow="tram rail_urban rail rail_electric rail_fast ship" speed="6.57" length="9.16" shape="1184.94,2057.15 1184.61,2059.60 1185.16,2061.58 1186.59,2063.10 1188.90,2064.16"/>
    </edge>
    <edge id=":1326157599_5" function="internal">
        <lane id=":1326157599_5_0" index="0" disallow="tram rail_urban rail rail_electric rail_fast ship" speed="27.78" length="14.44" shape="1184.94,2057.15 1181.13,2071.07"/>
    </edge>
    <edge id=":1326157599_6" function="internal">
        <lane id=":1326157599_6_0" index="0" disallow="tram rail_urban rail rail_electric rail_fast ship" speed="8.09" length="3.87" shape="1184.94,2057.15 1183.36,2060.68"/>
    </edge>
    <edge id=":1326157599_7" function="internal">
        <lane id=":1326157599_7_0" index="0" disallow="tram rail_urban rail rail_electric rail_fast ship" speed="3.65" length="1.44" shape="1184.94,2057.15 1183.84,2058.08"/>
    </edge>
    <edge id=":1326157599_16" function="internal">
        <lane id=":1326157599_16_0" index="0" disallow="tram rail_urban rail rail_electric rail_fast ship" speed="8.09" length="10.34" shape="1183.36,2060.68 1181.02,2062.89 1177.91,2063.78 1174.04,2063.35"/>
    </edge>
    <edge id=":1326157599_17" function="internal">
        <lane id=":1326157599_17_0" index="0" disallow="tram rail_urban rail rail_electric rail_fast ship" speed="3.65" length="3.23" shape="1183.84,2058.08 1182.96,2058.24 1182.30,2057.64 1181.86,2056.26"/>
    </edge>
    <edge id=":1326157599_8" function="internal">
        <lane id=":1326157599_8_0" index="0" disallow="tram rail_urban rail rail_electric rail_fast ship" speed="6.61" length="9.15" shape="1174.84,2060.25 1177.33,2060.53 1179.34,2059.96 1180.85,2058.53 1181.86,2056.26"/>
    </edge>
    <edge id=":1326157599_9" function="internal">
        <lane id=":1326157599_9_0" index="0" disallow="tram rail_urban rail rail_electric rail_fast ship" speed="13.89" length="14.59" shape="1174.84,2060.25 1188.90,2064.16"/>
    </edge>
    <edge id=":1326157599_10" function="internal">
        <lane id=":1326157599_10_0" index="0" disallow="tram rail_urban rail rail_electric rail_fast ship" speed="8.02" length="14.29" shape="1174.84,2060.25 1178.44,2061.75 1180.68,2064.05 1181.58,2067.16 1181.13,2071.07"/>
    </edge>
    <edge id=":1326157599_11" function="internal">
        <lane id=":1326157599_11_0" index="0" disallow="tram rail_urban rail rail_electric rail_fast ship" speed="3.65" length="4.67" shape="1174.84,2060.25 1175.80,2061.32 1175.99,2062.20 1175.41,2062.87 1174.04,2063.35"/>
    </edge>
    <edge id=":1326157599_12" function="internal">
        <lane id=":1326157599_12_0" index="0" disallow="tram rail_urban rail rail_electric rail_fast ship" speed="6.52" length="9.11" shape="1178.03,2070.27 1178.33,2067.76 1177.76,2065.77 1176.33,2064.30 1174.04,2063.35"/>