<configuration>
    <input>
        <net-file value="Gangnam4.net.xml"/>
        <route-files value="Gangnam8.rou.xml"/>
        <additional-files value="Gangnam4.add.xml"/>
    </input>
        <time>
        <begin value="0"/>
        <end value="180000"/>
        <time-to-teleport value="-1"/>
        <start value="1"/>
        <quit-on-end value="1"/>
    </time>
    <report>
        <no-step-log value="true"/>
    </report>
</configuration>