<?xml version="1.0" encoding="UTF-8"?>

<!-- generated on 2024-09-11 11:06:14 by Eclipse SUMO netedit Version 1.20.0
-->

<routes xmlns:xsi="http://www.w3.org/2001/XMLSchema-instance" xsi:noNamespaceSchemaLocation="http://sumo.dlr.de/xsd/routes_file.xsd">
    <!-- Routes -->
    <route id="r_0" edges="-417746801 525738547#2 -417746803 -239953463#4 -239953464#2 -239953464#1 -239953464#0 -392691742#0 -239953386#0 -417745005#2 -417745005#1 -417745005#0 -417745006 -72465301#2 -72465301#1 -72465301#0 -72465272#2 -73656355 -522435832#3 46717709#0 -46717713#3 -46717713#2 -46717713#1 46717685#1 -180069551#1 -180069551#0 180069551#0 -46717681 475635714#0 475635714#1 -46717716#3 -46717716#2 -46717716#1 219076294#7 219076294#8 219076294#9 219076294#10 219835826#0 219835828#5 219835824#0 219835824#1 219835824#2 219835824#3 219835824#4 219835824#5 219835824#6 219835824#7 218723443#0 218723443#1 218723443#2 218723443#3 -46708384#0 -46653299#1 417442002#0 417442002#1 417442002#2 -46653304#0 46653307#4 46653307#5 804171185#0 375138545#2 -375138546#2 117785738#3 -117785727#1 -117785727#0 218448824#10 184391024#0 184391024#1 -417627673#1 -417627673#0 -117785750#2 -117785750#1 -117785750#0 -522490669#1 -522490669#0 -975290317 -218969107 920879014#0 -417671904#1 914559631 379526716#0 379526716#1 379526746#0 417671906 379526745#0 417671885#0 417671885#1 417671893#1 218448824#23 218448824#24 218448824#25 218448824#26 218448824#27 117786463#0 392691742#2 392691742#3 -117786475#1 -117786468#1 -117786468#0 239953383#0 239953383#1 -239953463#0 -921278929 -921278930#1 -921278930#0 919983792 919983793#0 919983793#1 919983793#2 919983793#3 375049445#0 908696520#4 908696520#5 908696520#6 908696520#7 -72465314 72465248#0 72465248#1 443035112#2 443035112#3 443035112#4 443035112#5 919983795#0 919983795#1 919983795#2 210334210 210334209#0"/>
    <route id="r_1" edges="-117792379#1 306803379 218722045#0 218722045#1 218969109#0 218969109#1 218969109#2 218969109#3 218969109#4 914571221#0 914571221#1 914571221#2 218448824#17 218448824#18 218448824#19 218448824#20 218448824#21 218448824#22 -417671893#1 417671885#2 908671828 522435822#8 -379526749 379526752#2 417671898 908671827 218448824#24 218448824#25 218448824#26 218448824#27 218448824#28 218448824#29 -72465285 -117786475#0 210334209#2 218448824#31 218448824#32"/>
    <route id="r_2" edges="-417671895#1 -417671895#0 -218969110#1 -218969110#0 -192728189#1 -192728189#0 417671891#0 417671891#1 218448824#19 218448824#20 702555688 194455699#0 194455699#1 194455698#0 194455698#1 194455698#2 194455698#3 194455703#1 194455703#2 194455703#3 194455703#4 -522435822#2 -522435822#1 -417745004#2 26163005#3 -46717713#7 46717703#0 -417646282#3 -417646282#2 46717699#1 46717717#2 475635711#1 417646282#3 417646282#4 417646272#0 417745004#1 417745004#2 -522435822#0 -369687318#4 -72465272#2 -72465272#1 -72465272#0 -210328490#3 -210328490#2 73656397#0 73656397#1 46618900#2 46618900#3 921219577#0 921219577#1 921219577#2 921219577#3 921219577#4 369687318#0 -73656407 72465246#1"/>
    <route id="r_3" edges="443035106#0 443035106#1 522435821 522435832#0 46717685#0 46717685#1 46717685#2 475635714#1 46717717#0 417652009#0 417652009#1 417652009#2 417652009#3 -417652009#3 -46717712#2 -46717712#1 475635716#2 219076294#2 475635713#2 -46696324 46696330#2 46696330#3 46696330#4 46696339#1 46696335#0 46696335#1 219835827#9 219835827#10 219835827#11 219835825#0 219835825#1 219835825#2 219835825#3 219835825#4 219835825#5 219835825#6 -522435821 219835828#0 219835828#1 219835828#2 219835828#3 219835828#4 219835828#5 219835823#0 219835823#1 219835823#2 219835823#3 219835823#4 219835823#5 219835823#6 219835823#7 219835823#8 46653281#0 46653281#1 46653281#2 417442005#0 417442005#1 417442005#2 417442005#3 417442005#4 219835827#3 219835827#4 -417442010 417442007#0 417442007#1 417442007#2 417442007#3 219835823#4 219835823#5 -46696339#2 -46696339#1 -46696339#0 46696337 417442012#0 417442012#1 219835827#6 219835827#7 219835827#8"/>
    <route id="r_4" edges="-194455697#0 26163005#1 26163005#2 26163005#3 218906059#1 417646272#0 417646272#1 805827640 417666588#0 417666588#1 417666588#2 417666588#3 417666588#4 417666576 218969109#15 218969109#16 -218906059#10 46717712#0 46717712#1 -475635713#0 -417646244 -475635712 -475635715 -417652024 803491572#1 -218906059#2 -417646282#4 -46717703#0 46717713#7 -218906059#0 522435822#0 522435822#1 522435822#2 522435822#3 522435822#4 515476886#3 417666595#0 194455700#0 194455700#1 194455700#2 194455696#0 194455696#1 194455696#2 194455696#3 417666602#0 417666602#1 417666602#2 417666602#3 218906059#3 218906059#4 218906059#5 218906059#6 218906059#7 218906059#8 218906059#9 218906059#10 219076294#0 219076294#1"/>
    <route id="r_5" edges="219076292#6 219076292#7 219076292#8 219076292#9 219076292#10 375138532#0 375138532#1 679004811#1 -40365646#1 -40365646#0 -417622711#1 -417622711#0 -117785744#2 -117785744#1 -117785744#0 46696330#0 46696330#1 46696330#2 46696330#3 -46653281#0 219835823#9 219835823#10 219835823#11 219835823#12 -475635713#2 219076294#3 219076294#4 -417652009#3 46717712#3 46717716#2 46717716#3 805827639 -180069551#2"/>
    <route id="r_6" edges="117793347#1 -117793348#1 561201413#0 561201413#1 522490647#3 174699431 174699430 166607607#0 914399839 -417627668#1 375138544#2 117785734#1 117785734#2 522490642#1 522490642#2 522490642#3 988283555#4 988283555#5 988283555#6 921296494 919274180#1 417420095 117824446 988283554#4 914561295 921296494 -919274180#0 -417434594 -166607608 166607608 417434593#1 218964977#4 218964977#5 522490672#0 218724605#1 218724605#2 522490647#0 522490647#1 522490647#2 561201415 166607607#1 375138544#0 375138544#1 -417627668#0 -417627646#0 -117785734#1 -117785734#0 375138534 218448824#9 117785727#0 117785727#1 417622695#0 417622695#1 417622695#2 46696332#0 46696332#1 46653297#0 -46653291#2 -46653291#1 -46653291#0 -46653281#2 -46696336#1 -46696336#0"/>
    <route id="r_7" edges="117796522#1 988283555#1 -117796520#2 -117796520#1 117785738#1 -804171185#1 -375138545#1 -375138545#0 522490642#8 522490642#9 522490642#10 988283552 218964975#0 218964975#1 218964975#2 -804171183#1 -803282751 218723443#6 218723443#7 218723443#8 -988283552 988283553#0 988283553#1 988283553#2 988283553#3 -46653304#1 -417442002#2 -417442002#1 -46653297#2 -46653307#1 -46653307#0 -46653293#1 -46653293#0 -46653306#3 -46653306#2 -46653306#1 -46653306#0 219835827#2 -417442005#4 -46653271#1 -46653272 46653306#1 -46653279#0 988283553#8 988283553#9 219835827#0 219835827#1 46653306#0 46653306#1 46653306#2 46653306#3 46653306#4 -46653299#0 46653307#1 -46653297#1 -46653297#0 46696332#2 417442014#2 -46696330#2 46696324 219835823#13 219835823#14 219835823#15 219076292#0 219076292#1 219076292#2 219076292#3 219076292#4 219076292#5 -417622699#2 -417622699#1 -417622699#0 -117785738#3 -117785738#2 117796522#0 -375138543#1 -375138543#0 522490642#6 522490642#7 375138545#0 117796520#0 -117785738#0 522490642#7 522490642#8 522490642#9 522490642#10 988283552"/>
    <route id="r_8" edges="-375138543#0"/>
    <route id="r_9" edges="417666565#2 515476886#11 515476886#12 218969109#8 218969109#9 218969109#10 -417666599#6 -417666565#0 -417666563 -914900612 -417622718 417622711#1 40365646#0 40365646#1 218448824#12 218448824#13 218448824#14 218448824#15 218448824#16 218448824#17 417671883#0 417671883#1 417671904#0 417671904#1 920879014#1 218969110#0 -117792346 417723814 117792379#1 -920879014#0 218969107 975290317 522490669#0 -117785740#1 805827646 219076292#13 219076292#14 975290317 522490669#0 522490669#1 522490669#2 -522490669#2 117785750#0 117785750#1 117785750#2 417627673#0 -804841176 679004811#0 375138532#2 -184391024#0 218448824#11 -40365646#1 515476886#16 375138531 417622707 417622709#0 417622709#1 417622709#2 -219076293#2 117785744#0 117785744#1 117785742#1 117785742#2 -375138545#3 -375138545#2 -804171185#0 -219076293#4 -219076293#3 -219076293#2 -219076293#1 -219076293#0 -218906059#10 -218906059#9 -417666571#2 -417666571#1 -417666571#0 -194455702#1 417666567#0 417666567#1 417666567#2 417666567#3 515476886#10 417666565#3 417671883#0 379526717#1 218969109#4 914571221#0 914571221#1 914571221#2 218448824#17 218448824#18 218448824#19 218448824#20 218448824#21 921708754 515476886#6 -702555688 -379526745#1 -914558347#1 -914558347#0 379526717#0 -417671883#0 -417666565#3 -417666565#2 -417666603#1 805827643 417666599#5 417666565#1 417666603#2 -417666603#2 -417666565#1 -417666599#5 -417666599#4 -417666599#3 -417666599#2 -417666599#1 -417666599#0 194455698#0 -417666604#2 -417666604#1 -417666604#0 194455696#2 -194455693#0 194455698#2 194455698#3 -194455703#0 -194455696#3 194455693#1 194455693#2 194455693#3 -417666588#1 417666574 218906059#4 -417646252 180069548 475635715 46717700#0 46717700#1 475635711#0 475635711#1 475635711#2 -46717713#5 -46717713#4 46717709#1 -417646282#0 417646278#0 417646278#1 -522435832#1 73656431 417734691#0 417734691#1 417734691#2 -417734691#2 -417734691#1 -417734691#0 -73656438#0 46618900#1 -73656397#1 -73656397#0 -210328490#1 -210328490#0 210328490#0 210328490#1"/>
</routes>
