<?xml version="1.0" encoding="UTF-8"?>

<!-- generated on 2024-09-10 13:55:12 by Eclipse SUMO duarouter Version 1.20.0
<configuration xmlns:xsi="http://www.w3.org/2001/XMLSchema-instance" xsi:noNamespaceSchemaLocation="http://sumo.dlr.de/xsd/duarouterConfiguration.xsd">

    <input>
        <net-file value="Gangnam4.net.xml"/>
        <route-files value="Gangnam4.trip.xml"/>
    </input>

    <output>
        <output-file value="Gangnam4.rou.xml"/>
    </output>

</configuration>
-->

<routes xmlns:xsi="http://www.w3.org/2001/XMLSchema-instance" xsi:noNamespaceSchemaLocation="http://sumo.dlr.de/xsd/routes_file.xsd">
    <vType id="ElectricCar" length="2.00" minGap="0.50" maxSpeed="55.00" color="white" accel="2.6" decel="1.0" sigma="0.0">
        <param key="airDragCoefficient" value="0.6"/>
        <param key="constantPowerIntake" value="100"/>
        <param key="frontSurfaceArea" value="5"/>
        <param key="has.battery.device" value="true"/>
        <param key="internalMomentOfInertia" value="0.01"/>
        <param key="maximumBatteryCapacity" value="1200"/>
        <param key="maximumPower" value="1000"/>
        <param key="propulsionEfficiency" value="0.9"/>
        <param key="radialDragCoefficient" value="0.5"/>
        <param key="recuperationEfficiency" value="0.9"/>
        <param key="rollDragCoefficient" value="0.01"/>
        <param key="stoppingTreshold" value="0.1"/>
        <param key="vehicleMass" value="10000"/>
    </vType>
    <route id="route_0" edges="379526746#0 379526746#1 -914558347#0 379526717#0 -417671883#0 -417666565#3 515476886#11 515476886#12 515476886#13 515476886#14 515476886#15 515476886#16 515476886#17 515476886#18 988283555#0 988283555#1 -117796520#2 -117796520#1 -117796520#0"/>
    <route id="route_1" edges="-46696332#0 -219076293#3 -219076293#2 -219076293#1 -219076293#0 -218906059#10 -218906059#9 -218906059#8 -218906059#7 -218906059#6 -218906059#5 -218906059#4 -218906059#3 -218906059#2 -218906059#1 -218906059#0 -369687318#4 -369687318#3 -369687318#2 -210328491#4 -210328491#3 -210328491#2 -210328491#1 -210328491#0 -72465252#2 -72465252#1 -417734691#2"/>        
    <route id="route_2" edges="417671895#0 -417671895#0 -218969110#1 -218969110#0 -920879014#1 -920879014#0 218969107 975290317 522490669#0 522490669#1 522490669#2 174699430 166607607#0 166607607#1 166607607#2 166607607#3 -417627646#2 -417627646#1 417627646#1"/>
    <route id="route_3" edges="561201409#1 472042767 522490647#0 522490647#1 522490647#2 522490647#3 174699431 -522490669#2 -522490669#1 -522490669#0 -975290317 -218969107 920879014#0 920879014#1 218969110#0 218969110#1 -218969110#1"/>
    <route id="route_4" edges="168106295#0 417666576 218969109#15 218969109#16 219076293#0 219076293#1 219076293#2 219076293#3 219076293#4 219076293#5 219076293#6 219076293#7 988283552 988283554#0 988283554#1 988283554#2 988283554#3 -117824446"/>
    <route id="route_5" edges="-417671908 -417671910 379526745#0 379526745#1 218448824#21 218448824#22 218448824#23 218448824#24 218448824#25 -522435822#5 -522435822#4 -522435822#3 -522435822#2 -522435822#1 -522435822#0 218906059#0 218906059#1 218906059#2 218906059#3 218906059#4"/>
    <route id="route_6" edges="-117796520#2 375138543#1 117796522#1 117796522#2 218448824#7 218448824#8 218448824#9 218448824#10 218448824#11 218448824#12 218448824#13 218448824#14 218969109#7 218969109#8 218969109#9 218969109#10 -417666599#6 -417666599#5 -417666599#4 -417666599#3 -417666599#2 -417666599#1"/>
    <route id="route_7" edges="392691744#3 -417746801 525738547#2 525738547#3 -522435822#9 -522435822#8 -522435822#7 -522435822#6 -522435822#5 -522435822#4 -522435822#3 -522435822#2 -522435822#1 -522435822#0 218906059#0 218906059#1 218906059#2 218906059#3 218906059#4 218906059#5 218906059#6 218906059#7 218906059#8 218906059#9 218906059#10 219076293#0 219076293#1 219076293#2 219076293#3"/>
    <route id="route_8" edges="-417723814 117792346 218969110#1 218969110#2 218969110#3 -522435822#9 -522435822#8 -522435822#7 -522435822#6 -522435822#5 -522435822#4 -522435822#3 -522435822#2 -522435822#1 -522435822#0 -522435832#4 -522435832#3 -522435832#2 -522435832#1 -522435832#0 -522435821 219835828#0 219835828#1 219835828#2"/>
    <route id="route_9" edges="46696336#0 46696336#1 -46653281#1 -46653281#0 219835823#9 219835823#10 219835823#11 219835823#12 219835823#13 219835823#14 219835823#15 219076292#0 219076292#1 219076292#2 219076292#3 219076292#4 219076292#5 219076292#6 219076292#7 219076292#8 219076292#9 219076292#10 219076292#11 219076292#12 -805827646 -117785740#0"/>
    <route id="route_10" edges="46696332#0 -46696332#0 -219076293#3 -219076293#2 -219076293#1 219076292#0 219076292#1 219076292#2 219076292#3 219076292#4 914900612 417666563 417666565#0 417666565#1 417666565#2"/>
    <route id="route_11" edges="-72465252#1 72465252#1 72465252#2 210328491#0 210328491#1 210328491#2 210328491#3 210328491#4 369687318#2 369687318#3 369687318#4 218906059#0 218906059#1 218906059#2 218906059#3 218906059#4 218906059#5 218906059#6 218906059#7 218906059#8 218906059#9 218906059#10 219076294#0 219076294#1 219076294#2 475635713#2 -46696324 46696330#2 -417442014#2 -417442014#1"/>
    <route id="route_12" edges="914900612 218969109#12 218969109#13 218969109#14 218969109#15 218969109#16 -218906059#10 -218906059#9 -218906059#8 -218906059#7 -218906059#6 -218906059#5 -218906059#4 -218906059#3 -218906059#2 -218906059#1 -218906059#0 -369687318#4 -369687318#3 -369687318#2 -210328491#4 -210328491#3 -72465246#2"/>
    <route id="route_13" edges="-219076293#6 -219076293#5 -219076293#4 -219076293#3 -219076293#2 -219076293#1 -219076293#0 -218906059#10 -218906059#9 -218906059#8 -218906059#7 -218906059#6 -218906059#5 -218906059#4 -218906059#3 -218906059#2 -218906059#1 -218906059#0 522435822#0 522435822#1 522435822#2 522435822#3 522435822#4 522435822#5 522435822#6 522435822#7 522435822#8 522435822#9 -525738547#3 -525738547#2 -525738547#1 -239953383#2 -239953383#1 -239953383#0"/>
    <route id="route_14" edges="475635715 -475635715 -180069548 -46717704 -218906059#6 -218906059#5 -218906059#4 -218906059#3 -218906059#2 -218906059#1 -218906059#0 522435822#0 522435822#1 522435822#2 522435822#3 522435822#4 522435822#5 522435822#6 522435822#7 522435822#8 -239953463#6 239953463#6"/>
    <route id="route_15" edges="46696332#2 417442014#2 -46696330#2 46696324 219835823#13 219835823#14 219835823#15 219076292#0 219076292#1 219076292#2 219076292#3 219076292#4 219076292#5 219076292#6 219076292#7 219076292#8 218448824#14 218448824#15 218448824#16 218448824#17 218448824#18 218448824#19 218448824#20 -379526745#1 417671885#0 417671885#1"/>
    <route id="route_16" edges="219076292#11 219076292#12 219076292#13 219076292#14 -218969107 920879014#0 920879014#1 218969110#0 218969110#1 218969110#2 218969110#3 -522435822#9 -522435822#8 -522435822#7 -522435822#6 -522435822#5 -522435822#4 -522435822#3 -522435822#2 -522435822#1 -522435822#0 -369687318#4 -369687318#3 -369687318#2 -210328491#4 -210328491#3 -210328491#2 -210328491#1 -210328491#0 -72465252#2 -72465252#1 417734691#3 921219577#1"/>
    <route id="route_17" edges="-921278928 921278928 525738547#0 525738547#1 525738547#2 525738547#3 -218969110#3 -218969110#2 -218969110#1 -218969110#0 -920879014#1 -920879014#0 218969109#0 218969109#1 218969109#2 218969109#3 218969109#4 218969109#5 218969109#6 218969109#7 218969109#8 218969109#9 218969109#10 218969109#11 218969109#12 218969109#13 218969109#14 218969109#15 218969109#16 219076294#0 219076294#1 219076294#2 219076294#3 219076294#4"/>
    <route id="route_18" edges="46717712#3 -46717716#1 -46717716#0 219835823#9 219835823#10 219835823#11 219835823#12 219835823#13 219835823#14 219835823#15 219076292#0 219076292#1 219076292#2 219076292#3 219076292#4 219076292#5 219076292#6 219076292#7 219076292#8 218448824#14 218448824#15 218448824#16 218448824#17 218448824#18 218448824#19 218448824#20 218448824#21 218448824#22 218448824#23 218448824#24 218448824#25 218448824#26 218448824#27 218448824#28 218448824#29 218448824#30 218448824#31 218448824#32 218448824#33 375049564"/>
    <route id="route_19" edges="515476886#7 515476886#8 515476886#9 515476886#10 515476886#11 515476886#12 218969109#8 218969109#9 218969109#10 218969109#11 218969109#12 218969109#13 218969109#14 218969109#15 218969109#16 219076294#0 219076294#1 219076294#2 219076294#3 219076294#4 219076294#5 219076294#6 219076294#7 219076294#8 219076294#9 219076294#10 219835825#0 219835825#1 219835825#2 219835825#3 219835825#4 219835825#5 219835825#6"/>
    <route id="route_20" edges="417666571#1 -417666588#3 -417666588#2 -194455693#3 -194455693#2 -194455693#1 -194455696#2 -194455696#1"/>
    <route id="route_21" edges="-417745006 -72465301#2 -72465301#1 -72465301#0 369687318#4 218906059#0 218906059#1 -417646282#4 -417646282#3 -417646282#2 -46717699#0"/>
    <route id="route_22" edges="-218906059#6 -218906059#5 -218906059#4 -218906059#3 -218906059#2 -218906059#1 -218906059#0 522435822#0 522435822#1 522435822#2 522435822#3 522435822#4 522435822#5 522435822#6 522435822#7 522435822#8 522435822#9 -525738547#3 -417746803"/>
    <route id="route_23" edges="-239953461 -210332895#0 -921278929 921278928 525738547#0 525738547#1 525738547#2 525738547#3 -218969110#3 -218969110#2 -218969110#1 -218969110#0 -920879014#1 -920879014#0 218969109#0 218969109#1 218969109#2 218969109#3 218969109#4 218969109#5 218969109#6 218969109#7 218969109#8 218969109#9 218969109#10 218969109#11 218969109#12 218969109#13 218969109#14 218969109#15 218969109#16 219076294#0 219076294#1 219076294#2 219076294#3 219076294#4 219076294#5 219076294#6 219076294#7 219076294#8 46717680#1 -46696339#3 -46696339#2 46696335#0 -46696335#0"/>
    <route id="route_24" edges="379526717#1 218969109#4 218969109#5 218969109#6 218969109#7 515476886#13 515476886#14 515476886#15 515476886#16 515476886#17 515476886#18 988283555#0 -117796522#1 -117796522#0 -804171185#1 -804171185#0"/>
    <route id="route_25" edges="-908696521 515476886#0 515476886#1 515476886#2 522435822#5 522435822#6 522435822#7 -908671828 -417671885#2 -417671885#1 -417671885#0"/>
    <route id="route_26" edges="-46653307#5 46653307#5 -219076293#4 -219076293#3 -219076293#2 -219076293#1 -219076293#0 219076294#0 219076294#1 219076294#2 219076294#3 219076294#4 219076294#5 219076294#6 46717716#1 46717716#2 46717716#3 805827639"/>
    <route id="route_27" edges="392691744#1 417746809#2 -117786463#2 -117786463#1 -117786463#0 -908696521 515476886#0 515476886#1 515476886#2 -522435822#4 -522435822#3 -522435822#2 -522435822#1 -417745004#2 26163005#3"/>
    <route id="route_28" edges="-417646244 -475635712 -475635715 -180069548 -46717704 218906059#7 218906059#8 218906059#9 218906059#10 219076293#0 219076292#0 219076292#1 219076292#2 219076292#3 219076292#4 219076292#5 219076292#6 219076292#7 219076292#8 218448824#14 218448824#15 218448824#16 218448824#17 218448824#18 218448824#19 218448824#20 -379526745#1 417671885#0 417671885#1"/>
    <route id="route_29" edges="-417622711#0 -117785752#0 219076292#3 219076292#4 219076292#5 219076292#6 219076292#7 515476886#14 515476886#15 515476886#16 515476886#17 515476886#18 988283555#0 117796522#2 218448824#7 921296493 -921296493"/>
    <route id="route_30" edges="988283553#7 988283553#8 988283553#9 219835827#0 219835827#1 219835827#2 219835827#3 219835827#4 219835827#5 219835827#6 219835827#7 219835827#8 219835827#9 219835827#10 219835823#1 219835823#2 219835823#3 219835823#4 219835823#5 219835823#6 219835823#7 219835823#8 219835823#9 219835823#10 219835823#11 219835823#12 219835823#13 219835823#14 219835823#15 219076292#0 219076292#1 219076292#2 219076292#3 219076292#4 219076292#5 219076292#6 219076292#7 219076292#8 219076292#9 219076292#10 219076292#11 219076292#12 219076292#13 219076292#14 -218969107 920879014#0 920879014#1 218969110#0 218969110#1 218969110#2 379526752#0"/>
    <route id="route_31" edges="475635711#2 46717713#6 46717713#7 218906059#1 218906059#2 218906059#3 218906059#4 218906059#5 218906059#6 218906059#7 218906059#8 218906059#9 218906059#10 219076294#0 219076294#1 219076294#2 219076294#3 219076294#4 219076294#5 219076294#6 -46717716#0 46653281#0"/>
    <route id="route_32" edges="-417745011#0 908696520#9 515476886#0 515476886#1 515476886#2 515476886#3 515476886#4 515476886#5 515476886#6 515476886#7 515476886#8 515476886#9 515476886#10 515476886#11 515476886#12 218969109#8 218969109#9 218969109#10 218969109#11 218969109#12 218969109#13 218969109#14 -417666576 -168106295#0"/>
    <route id="route_33" edges="-522435822#2 -522435822#1 -522435822#0 218906059#0 218906059#1 218906059#2 218906059#3 218906059#4 218906059#5 218906059#6 218906059#7 218906059#8 218906059#9 218906059#10 219076293#0 219076293#1 219076293#2 219076293#3 219076293#4 -46653307#5"/>
    <route id="route_34" edges="-417671889#1 417671889#1 -417671895#0 218969110#2 218969110#3 -525738547#3 -525738547#2 -525738547#1 -525738547#0 -921278928 -921278930#1 -921278930#0 919983792 919983793#0 919983793#1 919983793#2 919983793#3 375049445#0 908696520#4 908696520#5 908696520#6"/>
    <route id="route_35" edges="522490642#1 914569139 218448824#5 218448824#6 218448824#7 218448824#8 218448824#9 218448824#10 218448824#11 218448824#12 218448824#13 218448824#14 218448824#15 218448824#16 218448824#17 218448824#18 218448824#19 218448824#20 218448824#21 218448824#22 218448824#23 218448824#24 218448824#25 -522435822#5 -522435822#4 -522435822#3 -522435822#2 -522435822#1"/>
    <route id="route_36" edges="417442002#1 417442002#2 -46653304#0 46653307#4 46653307#5 -219076293#4 -219076293#3 -219076293#2 117785744#0 117785744#1 117785744#2"/>
    <route id="route_37" edges="72465272#0 -72465272#0 -210328490#3 -210328490#2 -210328490#1 -210328490#0 72465252#2 210328491#0 210328491#1"/>
    <route id="route_38" edges="-46653307#2 46653297#2 -417442002#0 -46653306#4 -46653306#3 -46653306#2 -46653279#0"/>
    <route id="route_39" edges="219835823#12 -46696324 46696330#2 -417442014#2 -417442014#1 -417442014#0 -46653293#2 -46653293#1 -46653293#0 -46653306#3"/>
    <route id="route_40" edges="219835827#3 219835827#4 219835827#5 219835827#6 219835827#7 219835827#8 219835827#9 219835827#10 219835823#1 219835823#2 219835823#3 219835823#4 219835823#5 219835823#6 219835823#7 219835823#8 219835823#9 219835823#10 219835823#11 219835823#12 219835823#13 219835823#14 219835823#15 219076292#0 219076292#1 219076292#2 219076292#3 219076292#4 219076292#5 219076292#6 219076292#7 515476886#14 515476886#15 515476886#16 515476886#17 515476886#18 988283555#0 988283555#1 988283555#2 988283555#3 988283555#4 988283555#5 218964977#1 218448824#2 218448824#3 218448824#4 218448824#5 702555687#0 702555687#1 702555687#2"/>
    <route id="route_41" edges="117785750#2 417627673#0 417627673#1 -184391024#1 -184391024#0 218448824#11 218448824#12 218448824#13 218448824#14 218448824#15 218448824#16 218448824#17 218448824#18 218448824#19 218448824#20 -379526745#1 -379526745#0 417671910 417671908 -417671908"/>
    <route id="route_42" edges="988283555#3 522490642#4 522490642#5 522490642#6 522490642#7 522490642#8 522490642#9 522490642#10 988283552 218964975#0"/>
    <route id="route_43" edges="-219076293#4 -219076293#3 -219076293#2 -219076293#1 -219076293#0 -218906059#10 -218906059#9 -218906059#8 -218906059#7 -218906059#6 194455694#0 -417666588#2 -194455693#3 -194455693#2 -194455693#1 194455696#3 -194455696#3"/>
    <route id="route_44" edges="-369687302 369687302 522435832#2 522435832#3 522435832#4 218906059#0 218906059#1 218906059#2 218906059#3 218906059#4 218906059#5 218906059#6 218906059#7 218906059#8 218906059#9 218906059#10 219076293#0 219076293#1 219076293#2 219076293#3 219076293#4 804171185#0 -375138545#1 -375138545#0 375138545#0"/>
    <route id="route_45" edges="46653306#2 46653306#3 46653306#4 417442002#0 417442002#1 417442002#2 -46653304#0 46653307#4 46653307#5 -219076293#4 -219076293#3 -219076293#2 -219076293#1 -219076293#0 -218906059#10 168106295#0 168106295#1 168106295#2"/>
    <route id="route_46" edges="-210328490#0 72465252#2 210328491#0 210328491#1 210328491#2 210328491#3 210328491#4 369687318#2 369687318#3 369687318#4 522435822#0 522435822#1 522435822#2 522435822#3 522435822#4 522435822#5 522435822#6 522435822#7 522435822#8 522435822#9 -218969110#3 -218969110#2 -218969110#1 -218969110#0 -920879014#1 -920879014#0 218969107 975290317 522490669#0 522490669#1 522490669#2 174699430 166607607#0 166607607#1 166607607#2 166607607#3 166607607#4 1009285129#0"/>
    <route id="route_47" edges="988283555#1 988283555#2 988283555#3 988283555#4 988283555#5 218964977#1 218448824#2 218448824#3 218448824#4 218448824#5 218448824#6 218448824#7 218448824#8 218448824#9 218448824#10 218448824#11 218448824#12 218448824#13 219076292#9 219076292#10 219076292#11 219076292#12 219076292#13 219076292#14 -218969107 920879014#0 920879014#1 218969110#0"/>
    <route id="route_48" edges="920879014#1 218969110#0 -218969110#0 -192728189#1 -192728189#0 417671891#0 417671891#1 218448824#19 218448824#20 702555688 515476886#7 515476886#8"/>
    <route id="route_49" edges="-117785744#2 -117785744#1 -117785744#0 -219076293#1 -219076293#0 -218906059#10 -218906059#9 -218906059#8 -218906059#7 -218906059#6 -218906059#5 -218906059#4 -417666574 -417666588#0 417666602#2"/>
    <route id="route_50" edges="417627673#0 417627673#1 -184391024#1 -184391024#0 218448824#11 218448824#12 218448824#13 218448824#14 218969109#7 218969109#8 218969109#9 218969109#10 218969109#11 218969109#12 218969109#13 218969109#14 218969109#15 218969109#16 219076293#0 219076292#0 219076292#1 219076292#2"/>
    <route id="route_51" edges="-46653307#4 46653307#4 46653307#5 -219076293#4 -219076293#3 -219076293#2 -219076293#1 219076292#0 219076292#1 219076292#2 219076292#3 219076292#4 219076292#5 219076292#6 219076292#7 219076292#8 219076292#9 219076292#10 219076292#11 219076292#12 219076292#13 219076292#14 -218969107 920879014#0 920879014#1 218969110#0 218969110#1 218969110#2 379526752#0 379526752#1"/>
    <route id="route_52" edges="-369687318#2 369687318#2 369687318#3 369687318#4 218906059#0 218906059#1 218906059#2 218906059#3 218906059#4 218906059#5 194455694#0 194455694#1"/>
    <route id="route_53" edges="194455703#3 194455703#4 522435822#3 522435822#4 515476886#3 515476886#4 515476886#5 515476886#6 515476886#7 515476886#8 515476886#9 515476886#10 417666565#3 417671883#0 379526717#1 218969109#4 914571221#0"/>
    <route id="route_54" edges="522490642#1 522490642#2 522490642#3 522490642#4 522490642#5 522490642#6 522490642#7 522490642#8 522490642#9 522490642#10 988283553#0 988283553#1 988283553#2 988283553#3 988283553#4 988283553#5 -46653299#1 -46653306#4"/>
    <route id="route_55" edges="218724605#1 218724605#2 522490647#0 522490647#1 522490647#2 522490647#3 174699431 -522490669#2 -522490669#1 -522490669#0 -975290317 -218969107 218969109#0 218969109#1 218969109#2 218969109#3 218969109#4 218969109#5 218969109#6 218969109#7 218969109#8 218969109#9 218969109#10 218969109#11 218969109#12 218969109#13 218969109#14 218969109#15 218969109#16 219076294#0 219076294#1 219076294#2 219076294#3 219076294#4 -417652009#3 -417652009#2 -417652009#1 -417652009#0"/>
    <route id="route_56" edges="72465270#1 -72465270#1 -72465270#0 -72465301#0 369687318#4 -522435832#4 -522435832#3 -522435832#2 -522435832#1 522435832#1"/>
    <route id="route_57" edges="-46717712#3 -46717712#2 475635713#1 475635713#2 219835823#13 219835823#14 219835823#15 219076292#0 219076292#1 219076292#2 219076292#3 219076292#4 219076292#5 219076292#6 219076292#7 219076292#8 218448824#14 218448824#15 218448824#16 218448824#17 218448824#18 -417671891#1 914558347#0 -379526746#1 379526746#1"/>
    <route id="route_58" edges="26163005#1 26163005#2 26163005#3 218906059#1 218906059#2 218906059#3 218906059#4 218906059#5 218906059#6 218906059#7 218906059#8 218906059#9 218906059#10 219076293#0 219076293#1 219076293#2 219076293#3 219076293#4 219076293#5 219076293#6 219076293#7 988283553#0 988283553#1 988283553#2 988283553#3 988283553#4 988283553#5 988283553#6 988283553#7 988283553#8 988283553#9 219835827#0 219835827#1 219835827#2 219835827#3 219835827#4 -417442010"/>
    <route id="route_59" edges="443035106#0 443035106#1 219835828#0 219835828#1 219835828#2 219835828#3 219835828#4 219835828#5 219835823#0 219835823#1 219835823#2 219835823#3 219835823#4 219835823#5 219835823#6 219835823#7 219835823#8 219835823#9 219835823#10 219835823#11 219835823#12 219835823#13 219835823#14 219835823#15 219076292#0 219076292#1 219076292#2 219076292#3 219076292#4 219076292#5"/>
    <route id="route_60" edges="46653281#1 -46653281#1 -46653281#0 219835823#9 219835823#10 219835823#11 219835823#12 219835823#13 219835823#14 219835823#15 219076292#0 219076292#1 219076292#2 219076292#3 219076292#4 219076292#5 219076292#6 219076292#7 219076292#8 219076292#9 219076292#10 219076292#11 219076292#12 219076292#13 219076292#14 -218969107 920879014#0 920879014#1 218969110#0 218969110#1"/>
    <route id="route_61" edges="-117785727#0 218448824#10 218448824#11 218448824#12 218448824#13 219076292#9 219076292#10 219076292#11 219076292#12 219076292#13 219076292#14 975290317 522490669#0 -522490669#0"/>
    <route id="route_62" edges="-117786468#0 117786468#0 117786468#1 72465285 920625705 908696520#9 515476886#0 515476886#1 515476886#2 -522435822#4 -522435822#3 -522435822#2 -522435822#1 -522435822#0 -522435832#4 -522435832#3 -522435832#2 -522435832#1 73656431 73656438#1"/>
    <route id="route_63" edges="522490642#4 522490642#5 522490642#6 522490642#7 522490642#8 522490642#9 522490642#10 -219076293#7 -219076293#6 -219076293#5 -219076293#4 -219076293#3 -219076293#2 -219076293#1 -219076293#0 -218906059#10 -218906059#9 -218906059#8 -218906059#7 -218906059#6 -218906059#5 -218906059#4 -218906059#3 -218906059#2 -218906059#1 -46717713#7 -46717713#6 46717713#6"/>
    <route id="route_64" edges="-475635712 -475635715 -180069548 -46717704 218906059#7 218906059#8 -417666571#2 -417666571#1 -417666571#0 -194455702#1"/>
    <route id="route_65" edges="522490642#3 988283555#4 988283555#5 218964977#1 218964977#2 218964977#3 218964977#4 218964977#5 522490672#0 218724605#1 218724605#2 522490647#0 522490647#1 522490647#2 561201415 914399839"/>
    <route id="route_66" edges="-218969110#0 -920879014#1 -920879014#0 218969107 975290317 522490669#0 522490669#1 522490669#2 174699430 166607607#0 166607607#1 166607607#2 166607607#3 166607607#4 522490642#0 522490642#1 522490642#2 218448824#4"/>
    <route id="route_67" edges="-210328491#4 -210328491#3 210328491#3 210328491#4 369687318#2 369687318#3 369687318#4 522435822#0 522435822#1 522435822#2 522435822#3 522435822#4 522435822#5 522435822#6 522435822#7 417746835"/>
    <route id="route_68" edges="443035112#3 443035112#4 908696520#5 908696520#6 908696520#7 908696520#8 908696520#9 515476886#0 515476886#1 515476886#2 522435822#5 522435822#6 522435822#7 -908671828 -417671885#2 -417671885#1 -379526743#1"/>
    <route id="route_69" edges="218448824#19 218448824#20 702555688 515476886#7 515476886#8 515476886#9 515476886#10 515476886#11 515476886#12 218969109#8 218969109#9 218969109#10 218969109#11 218969109#12 218969109#13 218969109#14 218969109#15 218969109#16 219076294#0 219076294#1 219076294#2 219076294#3 219076294#4 219076294#5 219076294#6 219076294#7 219076294#8 219076294#9 219076294#10"/>
    <route id="route_70" edges="-46653307#2 -46653297#1 -46653297#0 -46696332#1 -46696332#0 -219076293#3 -219076293#2 -219076293#1 -219076293#0 -218906059#10 -218906059#9 -218906059#8 -218906059#7 -218906059#6 -218906059#5 -218906059#4 -218906059#3 -218906059#2 -218906059#1 -218906059#0 -522435832#4 522435832#4"/>
    <route id="route_71" edges="168106295#2 417666565#0 417666565#1 417666565#2 417666565#3 218448824#18 218448824#19 218448824#20 218448824#21 218448824#22 -417671893#1 -417671893#0 -417671895#1 -417671889#1"/>
    <route id="route_72" edges="219076292#2 219076292#3 219076292#4 219076292#5 219076292#6 219076292#7 219076292#8 218448824#14 218448824#15 218448824#16 218448824#17 218448824#18 218448824#19 218448824#20 218448824#21 218448824#22 -417671893#1 417671885#2"/>
    <route id="route_73" edges="-417666599#5 417666599#5 417666599#6 218969109#11 218969109#12 218969109#13 218969109#14 218969109#15 218969109#16 219076294#0 219076294#1 -475635716#2 -475635716#1"/>
    <route id="route_74" edges="988283555#0 117796522#2 218448824#7 218448824#8 218448824#9 218448824#10 218448824#11 -40365646#1 40365646#1"/>
    <route id="route_75" edges="194455696#2 -194455696#2 -194455696#1 -194455696#0 194455700#3 417666567#3 515476886#10 515476886#11 515476886#12 515476886#13 219076292#8 219076292#9 219076292#10 219076292#11 219076292#12 219076292#13 219076292#14 -218969107 218969109#0"/>
    <route id="route_76" edges="-375138544#2 375138544#2 -117785734#0 375138534 218448824#9 218448824#10 218448824#11 218448824#12 218448824#13 218448824#14 218969109#7 218969109#8 218969109#9 218969109#10 218969109#11 218969109#12 218969109#13 218969109#14 218969109#15 218969109#16 -218906059#10 -218906059#9 -218906059#8 -218906059#7 -218906059#6 -218906059#5 -218906059#4 -218906059#3 -218906059#2 417646272#0 -417745004#0"/>
    <route id="route_77" edges="-72465248#0 72465266#0 72465266#1 72465266#2 417745012#0 417745012#1 417745012#2 369687318#3 369687318#4 -522435832#4 -522435832#3 -522435832#2 -522435832#1 -522435832#0 -522435821 219835828#0 219835828#1"/>
    <route id="route_78" edges="-417745012#1 417745012#1 417745012#2 369687318#3 369687318#4 522435822#0 522435822#1 522435822#2 522435822#3 522435822#4 522435822#5 522435822#6 522435822#7 -908671828 -417671885#2 -417671885#1 -379526743#1 -417671908 -417671910"/>
    <route id="route_79" edges="-210332898 -210332895#0 -921278929 921278928 525738547#0 525738547#1 525738547#2 525738547#3 -218969110#3 -218969110#2 -218969110#1 -218969110#0 -920879014#1 -920879014#0 218969109#0 218969109#1 218969109#2 218969109#3 218969109#4 218969109#5 218969109#6 218969109#7 515476886#13 515476886#14 515476886#15 515476886#16 515476886#17 515476886#18 375138546#0 375138546#1"/>
    <route id="route_80" edges="-417745011#0 908696520#9 -72465260#1 72465260#1"/>
    <route id="route_81" edges="515476886#4 515476886#5 515476886#6 -702555688 218448824#21 218448824#22 218448824#23 218448824#24 218448824#25 218448824#26 218448824#27 218448824#28 218448824#29 218448824#30 218448824#31 218448824#32 218448824#33 919983795#0 919983795#1 919983795#2 919983795#3 919983795#4 -210332898 -210332895#0"/>
    <route id="route_82" edges="-417746820#1 -417746820#0 -417746835 -522435822#7 -522435822#6 -522435822#5 515476886#3 515476886#4 515476886#5 515476886#6 515476886#7 515476886#8 515476886#9 515476886#10 515476886#11 515476886#12 515476886#13 515476886#14 515476886#15 515476886#16 515476886#17 117785727#1 417622699#0"/>
    <route id="route_83" edges="-417671893#0 -417671895#1 417671889#2 379526752#1 379526749 -379526749"/>
    <route id="route_84" edges="804171185#0 -804171185#0 -219076293#4 -219076293#3 -219076293#2 -219076293#1 -219076293#0 219076294#0 219076294#1 219076294#2 219076294#3 219076294#4 219076294#5 219076294#6 219076294#7 219076294#8 219076294#9 219076294#10 219835826#0 219835828#5 219835824#0 219835824#1 219835824#2 219835824#3 219835824#4 219835824#5"/>
    <route id="route_85" edges="218448824#15 218448824#16 218448824#17 -417666565#3 515476886#11 515476886#12 218969109#8 218969109#9 218969109#10 218969109#11 218969109#12 218969109#13 218969109#14 218969109#15 218969109#16 219076293#0 219076293#1 219076293#2 219076293#3 219076293#4 -46653307#5 -46653307#4 -46653307#3 -46653307#2 -46653307#1 46653299#0"/>
    <route id="route_86" edges="46696332#2 417442014#2 -46696330#2 -46696330#1 -46696330#0 -219076293#1 -219076293#0 -218906059#10 -218906059#9 -417666571#2"/>
    <route id="route_87" edges="-239953383#1 239953383#1 239953383#2 525738547#1 525738547#2 525738547#3 -522435822#9 -522435822#8 -522435822#7 -522435822#6 -522435822#5 515476886#3 515476886#4 515476886#5 515476886#6 515476886#7 515476886#8 515476886#9 -417666567#3 -417666567#2 -417666567#1 194455692"/>
    <route id="route_88" edges="168106295#2 -417666563 -914900612 219076292#5 219076292#6 219076292#7 515476886#14 515476886#15 515476886#16 515476886#17 515476886#18 988283555#0 988283555#1 988283555#2 988283555#3 988283555#4 988283555#5 988283555#6 921296494 -919274180#0 218448824#0 218448824#1"/>
    <route id="route_89" edges="417671883#1 417671904#0 417671904#1 -920879014#0 218969109#0 218969109#1 218969109#2 218969109#3 218969109#4 218969109#5 218969109#6 218969109#7 515476886#13 515476886#14 515476886#15 515476886#16 375138531 417622707 417622709#0 417622709#1 417622709#2"/>
    <route id="route_90" edges="988283552 -988283552 -219076293#7 -219076293#6 -219076293#5 -219076293#4 -219076293#3 -219076293#2 -219076293#1 -219076293#0 -218906059#10 -218906059#9 -218906059#8 -218906059#7 -218906059#6 -218906059#5 -218906059#4 -218906059#3 -218906059#2 -218906059#1 -218906059#0 522435822#0 522435822#1 522435822#2 522435822#3 522435822#4 522435822#5 522435822#6 522435822#7 522435822#8 522435822#9 -525738547#3 -525738547#2 -525738547#1 -239953383#2"/>
    <route id="route_91" edges="117786463#1 -417746820#1 -417746820#0 -417746835 -522435822#7 -522435822#6 -522435822#5 -522435822#4 -522435822#3 -522435822#2 -522435822#1 -522435822#0 -369687318#4 -369687318#3 -369687318#2 -210328491#4 -210328491#3 -210328491#2 -210328491#1 -210328491#0 -72465252#2 -72465252#1"/>
    <route id="route_92" edges="515476886#7 515476886#8 515476886#9 515476886#10 515476886#11 515476886#12 218969109#8 218969109#9 218969109#10 218969109#11 218969109#12 218969109#13 218969109#14 218969109#15 218969109#16 219076294#0 219076294#1 219076294#2 219076294#3 219076294#4 219076294#5 219076294#6 -46717716#0 46653281#0 46653281#1 -46653281#1"/>
    <route id="route_93" edges="-417666574 417666588#1 -194455693#3 -194455693#2 194455702#0 194455702#1"/>